units metal
dimension 3
atom_style atomic
atom_modify map array
boundary f f f
region mybox block -5 5 -5 5 -5 5
read_data starting_configuration.lj
Reading data file ...
  orthogonal box = (-5.0000000 -5.0000000 -5.0000000) to (5.0000000 5.0000000 5.0000000)
  reading atoms ...
  13 atoms
mass 1 39.948
velocity all create 78.0 10 mom yes rot yes dist gaussian
pair_style pace
ACE version: 2021.4.9
Recursive evaluator is used
pair_coeff * * ACE_MD/TEMP/parameters.ace Ar
Loading ACE_MD/TEMP/parameters.ace
Total number of basis functions
	Ar: 8 (r=1) 0 (r>1)
Mapping LAMMPS atom type #1(Ar) -> ACE species type #0
compute S all pressure NULL virial
fix vir all ave/time 1 50 50 c_S[1] c_S[2] c_S[3] c_S[6] c_S[5] c_S[4] file ACE_MD/TEMP/tmp.virial
compute rdf all rdf 100
fix frdf all ave/time 50 19999 1000000 c_rdf[*] file ACE_MD/TEMP/tmp.rdf mode vector
compute pe all pe
fix fpe all ave/time 1 50 50 c_pe file ACE_MD/TEMP/tmp.pe
compute msd all msd com yes
fix fmsd all ave/time 1 50 50 c_msd[4] file ACE_MD/TEMP/tmp.msd
thermo 50
fix l0 all nve langevin 78.0 78.0 1 10
timestep 0.005
dump 1 all xyz 50 ACE_MD/TEMP/dump.xyz
dump 2 all custom 50 ACE_MD/TEMP/dump.positions_and_forces type id x y z fx fy fz
run 1000000
  update every 1 steps, delay 10 steps, check yes
Step Temp E_pair E_mol TotEng Press
0           78  -0.46542908            0  -0.34444159    129.04672
Averages over the last 10001 of 20001 rows, steps 500000 to 1000000:
Temp E_pair E_mol TotEng Press
30.4922 -0.391587 0 -0.34429 0.116949
Loop time of 45.8848 on 1 procs for 1000000 steps with 13 atoms

unfix l0
unfix frdf
unfix fpe
unfix fmsd
undump 1
undump 2
clear
