units metal
dimension 3
atom_style atomic
atom_modify map array
boundary f f f
region mybox block -5 5 -5 5 -5 5
read_data starting_configuration.lj
Reading data file ...
  orthogonal box = (-5.0000000 -5.0000000 -5.0000000) to (5.0000000 5.0000000 5.0000000)
  reading atoms ...
  13 atoms
mass 1 39.948
velocity all create 78.0 1 mom yes rot yes dist gaussian
pair_style hybrid lj/cut 4.0
pair_coeff 1 1 lj/cut 0.01034 1.0
compute S all pressure NULL virial
fix vir all ave/time 1 1 1 c_S[1] c_S[2] c_S[3] c_S[6] c_S[5] c_S[4] file LJ_MD/TEMP/tmp.virial
compute rdf all rdf 100
fix frdf all ave/time 1 9999 10000 c_rdf[*] file LJ_MD/TEMP/tmp.rdf mode vector
compute pe all pe
fix fpe all ave/time 1 1 1 c_pe file LJ_MD/TEMP/tmp.pe
compute msd all msd com yes
fix fmsd all ave/time 1 1 1 c_msd[4] file LJ_MD/TEMP/tmp.msd
thermo 1
fix l0 all nve langevin 78.0 78.0 1 1
timestep 0.005
dump 1 all xyz 1 LJ_MD/TEMP/dump.xyz
dump 2 all custom 1 LJ_MD/TEMP/dump.positions_and_forces type id x y z fx fy fz
run 10000
  update every 1 steps, delay 10 steps, check yes
Step Temp E_pair E_mol TotEng Press
0           78  -0.45833913            0  -0.33735163    129.22983
Averages over the last 5001 of 10001 rows, steps 5000 to 10000:
Temp E_pair E_mol TotEng Press
30.3366 -0.384208 0 -0.337152 -0.942793
Loop time of 0.424235 on 1 procs for 10000 steps with 13 atoms

unfix l0
unfix frdf
unfix fpe
unfix fmsd
undump 1
undump 2
clear
