LAMMPS (29 Oct 2020)
units metal
dimension 3
atom_style atomic
atom_modify map array
boundary p p p
region total_box block -8.56 8.56 -8.56 8.56 -8.56 8.56
create_box 1 total_box
Created orthogonal box = (-8.5600000 -8.5600000 -8.5600000) to (8.5600000 8.5600000 8.5600000)
lattice bcc 4.28
Lattice spacing in x,y,z = 4.2800000 4.2800000 4.2800000
create_atoms 1 region total_box
Created 128 atoms
pair_style hybrid/overlay eam/fs zero 10.0
pair_coeff * * eam/fs Na_v2.eam.fs Na
pair_coeff * * zero
compute rdf all rdf 200
compute ke all ke/atom
compute pea all pe/atom
compute pe all pe
compute s all stress/atom NULL virial
compute S all pressure NULL virial
compute flux all heat/flux ke pea s
compute msd all msd com yes
velocity all create 0.0 2 mom yes rot yes
thermo 1000
timestep 0.0001
fix fpe all ave/time 1 1000 1000 c_pe file TEMP/tmp.pe
fix fvir all ave/time 1 1000 1000 c_S[1] c_S[2] c_S[3] c_S[6] c_S[5] c_S[4] file TEMP/tmp.virial
fix fmsd all ave/time 1 1000 1000 c_msd[4] file TEMP/tmp.msd
fix fflux all ave/time 1 1000 1000 c_flux[*] file TEMP/tmp.flux
fix remove_drift all recenter 0.5 0.5 0.5 units box
dump 1 all xyz 1000 TEMP/dump_all.xyz
dump 2 all custom 1000 TEMP/dump_all.positions_and_forces id x y z fx fy fz
thermo_style custom step etotal pe temp press vol
fix 1 all npt temp 20 100 0.01 iso 0.0 0.0 0.01
dump 3 all xyz 1000 TEMP/dump_warm_1.xyz
dump 4 all custom 1000 TEMP/dump_warm_1.positions_and_forces id x y z fx fy fz
run 1000000
  update every 1 steps, delay 10 steps, check yes
Step TotEng PotEng Temp Press Volume
0    -141.9457    -141.9457            0    544.89921    5017.7761
Averages over the last 501 of 1001 rows, steps 500000 to 1000000:
TotEng PotEng Temp Press Volume
-139.928 -141.239 79.8707 -28.7829 5283.28
Loop time of 109.433 on 1 procs for 1000000 steps with 128 atoms

unfix 1
undump 3
undump 4
fix 1 all nvt temp 100 100 0.01
fix frdf all ave/time 100 100 10000 c_rdf[*] file TEMP/tmp_warm.rdf mode vector
dump 3 all xyz 1000 TEMP/dump_warm_2.xyz
dump 4 all custom 1000 TEMP/dump_warm_2.positions_and_forces id x y z fx fy fz
run 100000
Step TotEng PotEng Temp Press Volume
1000000   -139.15509   -140.75456    97.433252   -103.45867    5274.4167
Averages over the last 51 of 101 rows, steps 1050000 to 1100000:
TotEng PotEng Temp Press Volume
-139.198 -140.835 99.6988 170.108 5274.42
Loop time of 11.3137 on 1 procs for 100000 steps with 128 atoms

unfix 1
unfix frdf
undump 3
undump 4
thermo_style custom step etotal pe temp press vol
fix 1 all npt temp 100 300 0.01 iso 0.0 0.0 0.01
dump 3 all xyz 1000 TEMP/dump_melt_1.xyz
dump 4 all custom 1000 TEMP/dump_melt_1.positions_and_forces id x y z fx fy fz
run 1000000
Step TotEng PotEng Temp Press Volume
1100000   -139.23532   -140.93287    103.40805    259.31631    5274.4167
Averages over the last 501 of 1001 rows, steps 1600000 to 2100000:
TotEng PotEng Temp Press Volume
-134.356 -138.454 249.652 -1.34145 5322.21
Loop time of 114.549 on 1 procs for 1000000 steps with 128 atoms

unfix 1
undump 3
undump 4
fix 1 all nvt temp 300 300 0.01
fix frdf all ave/time 100 100 10000 c_rdf[*] file TEMP/tmp_melt.rdf mode vector
dump 3 all xyz 1000 TEMP/dump_melt_2.xyz
dump 4 all custom 1000 TEMP/dump_melt_2.positions_and_forces id x y z fx fy fz
run 100000
Step TotEng PotEng Temp Press Volume
2100000   -133.15627   -137.67729    275.40242    897.30926    5280.7599
Averages over the last 51 of 101 rows, steps 2150000 to 2200000:
TotEng PotEng Temp Press Volume
-132.789 -137.661 296.766 861.255 5280.76
Loop time of 11.4508 on 1 procs for 100000 steps with 128 atoms

unfix 1
unfix frdf
undump 3
undump 4
thermo_style custom step etotal pe temp press vol
fix 1 all npt temp 300 500 0.01 iso 0.0 0.0 0.01
dump 3 all xyz 1000 TEMP/dump_heat_1.xyz
dump 4 all custom 1000 TEMP/dump_heat_1.positions_and_forces id x y z fx fy fz
run 1000000
Step TotEng PotEng Temp Press Volume
2200000    -133.0469   -138.02895    303.48663    733.08372    5280.7599
Averages over the last 501 of 1001 rows, steps 2700000 to 3200000:
TotEng PotEng Temp Press Volume
-127.2 -134.588 450.055 65.9675 5425.88
Loop time of 116.6 on 1 procs for 1000000 steps with 128 atoms

unfix 1
undump 3
undump 4
fix 1 all nvt temp 500 500 0.01
fix frdf all ave/time 100 100 10000 c_rdf[*] file TEMP/tmp_heat.rdf mode vector
dump 3 all xyz 1000 TEMP/dump_heat_2.xyz
dump 4 all custom 1000 TEMP/dump_heat_2.positions_and_forces id x y z fx fy fz
run 100000
Step TotEng PotEng Temp Press Volume
3200000   -125.49939   -133.32466    476.68407   -2551.3458    5708.1132
Averages over the last 51 of 101 rows, steps 3250000 to 3300000:
TotEng PotEng Temp Press Volume
-120.178 -128.353 497.969 -327.128 5708.11
Loop time of 11.5763 on 1 procs for 100000 steps with 128 atoms

unfix 1
unfix frdf
undump 3
undump 4
thermo_style custom step etotal pe temp press vol
fix 1 all npt temp 500 1000 0.01 iso 0.0 0.0 0.01
dump 3 all xyz 1000 TEMP/dump_hot_1.xyz
dump 4 all custom 1000 TEMP/dump_hot_1.positions_and_forces id x y z fx fy fz
run 2000000
Step TotEng PotEng Temp Press Volume
3300000   -118.98527   -127.65925    528.38465   -472.46179    5708.1132
Averages over the last 1001 of 2001 rows, steps 4300000 to 5300000:
TotEng PotEng Temp Press Volume
-104.948 -119.298 874.121 -45.7576 6357.93
Loop time of 218.758 on 1 procs for 2000000 steps with 128 atoms

unfix 1
undump 3
undump 4
fix 1 all nvt temp 1000 1000 0.01
fix frdf all ave/time 100 100 10000 c_rdf[*] file TEMP/tmp_hot.rdf mode vector
dump 3 all xyz 1000 TEMP/dump_hot_2.xyz
dump 4 all custom 1000 TEMP/dump_hot_2.positions_and_forces id x y z fx fy fz
run 100000
Step TotEng PotEng Temp Press Volume
5300000   -100.40104   -117.11465    1018.1271   -388.42977    6746.5353
Averages over the last 51 of 101 rows, steps 5350000 to 5400000:
TotEng PotEng Temp Press Volume
-99.7672 -115.988 988.102 -436.094 6746.54
Loop time of 10.1827 on 1 procs for 100000 steps with 128 atoms

unfix 1
unfix frdf
undump 3
undump 4
thermo_style custom step etotal pe temp press vol
fix 1 all nvt temp 1000 100 0.01
dump 3 all xyz 1000 TEMP/dump_quench_1.xyz
dump 4 all custom 1000 TEMP/dump_quench_1.positions_and_forces id x y z fx fy fz
run 5000000
Step TotEng PotEng Temp Press Volume
5400000   -97.943109   -115.04595    1041.8372   -651.69322    6746.5353
Averages over the last 2501 of 5001 rows, steps 7900000 to 10400000:
TotEng PotEng Temp Press Volume
-123.679 -129.018 325.221 -4256.72 6746.54
Loop time of 505.468 on 1 procs for 5000000 steps with 128 atoms

unfix 1
undump 3
undump 4
thermo_style custom step etotal pe temp press vol
fix 1 all nvt temp 100 10 0.01
dump 3 all xyz 1000 TEMP/dump_equilibrate_1.xyz
dump 4 all custom 1000 TEMP/dump_equilibrate_1.positions_and_forces id x y z fx fy fz
run 1000000
Step TotEng PotEng Temp Press Volume
10400000    -133.2618   -135.02205    107.22742   -6290.7011    6746.5353
Averages over the last 501 of 1001 rows, steps 10900000 to 11400000:
TotEng PotEng Temp Press Volume
-135.743 -136.278 32.6208 -6526.64 6746.54
Loop time of 96.6293 on 1 procs for 1000000 steps with 128 atoms

unfix 1
undump 3
undump 4
unfix fpe
unfix fmsd
unfix fvir
unfix fflux
unfix remove_drift
undump 1
undump 2
clear
